
Actelion Java MolfileCreator 1.0

  9  9  0  0  0  0  0  0  0  0999 V2000
   12.5625   -8.6250    0.0000 N   0  0  0  0  0  0  0  0  0  0  0  0
   12.5625  -10.1250    0.0000 C   0  0  0  0  0  0  0  0  0  0  0  0
   13.8615  -10.8750    0.0000 C   0  0  0  0  0  0  0  0  0  0  0  0
   15.1606  -10.1250    0.0000 C   0  0  0  0  0  0  0  0  0  0  0  0
   15.1606   -8.6250    0.0000 C   0  0  0  0  0  0  0  0  0  0  0  0
   13.8615   -7.8750    0.0000 C   0  0  0  0  0  0  0  0  0  0  0  0
   16.4596   -7.8750    0.0000 C   0  0  0  0  0  0  0  0  0  0  0  0
   17.7587   -8.6250    0.0000 O   0  0  0  0  0  0  0  0  0  0  0  0
   16.4596   -6.3750    0.0000 O   0  0  0  0  0  0  0  0  0  0  0  0
  1  2  1  0  0  0  0
  2  3  1  0  0  0  0
  3  4  1  0  0  0  0
  4  5  2  0  0  0  0
  5  6  1  0  0  0  0
  6  1  1  0  0  0  0
  5  7  1  0  0  0  0
  7  8  1  0  0  0  0
  7  9  2  0  0  0  0
M  END
